<?xml version="1.0" encoding="UTF-8"?>

<!-- generated on 2025-05-12 05:51:56.076542 by randomTrips.py UNKNOWN
<configuration>
    <net-file value="E3.net.xml"/>
    <route-file value="random_routes.rou.xml"/>
    <end value="100.0"/>
</configuration>
-->

<!-- generated on 2025-05-12 05:51:56 by Eclipse SUMO duarouter Version v1_23_1+0047-ada85d6e487
<duarouterConfiguration xmlns:xsi="http://www.w3.org/2001/XMLSchema-instance" xsi:noNamespaceSchemaLocation="http://sumo.dlr.de/xsd/duarouterConfiguration.xsd">

    <input>
        <net-file value="E3.net.xml"/>
        <route-files value="trips.trips.xml"/>
    </input>

    <output>
        <output-file value="random_routes.rou.xml"/>
        <alternatives-output value="NUL"/>
    </output>

    <time>
        <begin value="0"/>
        <end value="100.0"/>
    </time>

    <report>
        <no-warnings value="true"/>
        <ignore-errors value="true"/>
        <no-step-log value="true"/>
    </report>

</duarouterConfiguration>
-->

<routes xmlns:xsi="http://www.w3.org/2001/XMLSchema-instance" xsi:noNamespaceSchemaLocation="http://sumo.dlr.de/xsd/routes_file.xsd">

  

    <vehicle id="0" depart="10.00">
        <route edges="39452954#0 -590856945#2 -590856945#1 1018830566#0 1018830566#1 1018830566#2 1018830566#3 993686596#0 993686596#1 -993686596#1 -993686596#0 -1018830566#3 -1018830566#2 -1018830566#1"/>
    </vehicle>








<vehicle id="v_zigzag" depart="45.00">
    <route edges="730778104#0 730778104#1 39456620#1 ET02 S04"/>
</vehicle>

      <vehicle id="v_neg_speed" depart="50.00">
        <route edges="315255906#1 315255906#2 315255814 ET03 S01" />
    </vehicle>




<vehicle id="v_ghost" depart="60.00">
    <route edges="730778104#0 730778104#1 39456620#1 ET02 S04"/>
</vehicle>








     <vehicle id="59" depart="60.00">
  <route edges="308158679#2 ET01 456581921#0 S03 315255842#0"/>
  <param key="departLane" value="2"/>
  <param key="routingMode" value="custom"/>
</vehicle>

    <vehicle id="60" depart="63.00">
        <route edges="308158679#2 ET01 456581921#0 S03 315255842#0"/>
        <param key="departLane" value="2"/>
        <param key="routingMode" value="custom"/>
    </vehicle>
    <vehicle id="61" depart="65.00">
        <route edges="308158679#2 ET01 456581921#0 S03 315255842#0"/>
        <param key="departLane" value="2"/>
        <param key="routingMode" value="custom"/>
    </vehicle>
    <vehicle id="63" depart="68.00">
        <route edges="308158679#2 ET01 456581921#0 S03 315255842#0"/>
        <param key="departLane" value="2"/>
        <param key="routingMode" value="custom"/>
    </vehicle>

    <vehicle id="v_stop" depart="69.00">
    <route edges="107633337 1009999056 ET04 107633326 308156705#1 689171244#0 689171244#1"/>
    </vehicle>

    <vehicle id="65" depart="70.00">
        <route edges="-9897006#3 -9897006#2 -9897006#1 -104184626#0"/>
                <param key="departLane" value="2"/>
        <param key="routingMode" value="custom"/>
    </vehicle>
    <vehicle id="66" depart="73.00">
        <route edges="308158679#2 ET01 456581921#0 S03 315255842#0"/>
                <param key="departLane" value="2"/>
        <param key="routingMode" value="custom"/>
    </vehicle>
    <vehicle id="68" depart="76.00">
        <route edges="308158679#2 ET01 456581921#0 S03 315255842#0"/>
                <param key="departLane" value="2"/>
        <param key="routingMode" value="custom"/>
    </vehicle>
    <vehicle id="69" depart="79.00">
       <route edges="308158679#2 ET01 456581921#0 S03 315255842#0"/>
               <param key="departLane" value="2"/>
        <param key="routingMode" value="custom"/>
    </vehicle>

    <vehicle id="71" depart="85.00">
        <route edges="308158679#2 ET01 456581921#0 S03 315255842#0"/>
                <param key="departLane" value="2"/>
        <param key="routingMode" value="custom"/>
    </vehicle>
    <vehicle id="72" depart="88.00">
       <route edges="308158679#2 ET01 456581921#0 S03 315255842#0"/>
               <param key="departLane" value="2"/>
        <param key="routingMode" value="custom"/>
    </vehicle>
       <vehicle id="v_burst" depart="90.00">
       <param key="departLane" value="1"/> 
    <route edges="308158679#2 ET01 456581921#0 S03 315255842#0"/>
    
    </vehicle>
    <vehicle id="74" depart="95.00">
        <route edges="308158679#2 ET01 456581921#0 S03 315255842#0"/>
                <param key="departLane" value="2"/>
        <param key="routingMode" value="custom"/>
    </vehicle>
    <vehicle id="75" depart="95.00">
        <route edges="308158679#2 ET01 456581921#0 S03 315255842#0"/>
                <param key="departLane" value="2"/>
        <param key="routingMode" value="custom"/>
    </vehicle>
    <vehicle id="76" depart="98.00">
        <route edges="308158679#2 ET01 456581921#0 S03 315255842#0"/>
                <param key="departLane" value="2"/>
        <param key="routingMode" value="custom"/>
    </vehicle>
    <vehicle id="77" depart="101.00">
        <route edges="308158679#2 ET01 456581921#0 S03 315255842#0"/>
                <param key="departLane" value="2"/>
        <param key="routingMode" value="custom"/>
    </vehicle>



 
   

    
    <vehicle id="1" depart="150.00">
        <route edges="315255906#1 315255906#2 315255814 ET03 S01" />
    </vehicle>
    <vehicle id="2" depart="200.00">
        <route edges="315255906#1 315255906#2 315255814 ET03 S01" />
    </vehicle>
 
    <vehicle id="3" depart="300.00">
        <route edges="9897006#1 9897006#2 9897006#3 1011258043#0 -1011258043#0 -9897006#3 -9897006#2 -9897006#1 104184626#4 104184626#5 -104184626#5"/>
    </vehicle>
    <vehicle id="4" depart="300.00">
        <route edges="104184626#4 104184626#5 104184626#6 104184626#7 994046595#1 1018830566#0 1018830566#1 1018830566#2 1018830566#3 993686596#0 993686596#1 -993686596#1 -993686596#0 -1018830566#3 -1018830566#2 -1018830566#1"/>
    </vehicle>
    <vehicle id="5" depart="650.00">
        <route edges="315255906#1 315255906#2 315255814 ET03 S01" />
    </vehicle> 
    <vehicle id="6" depart="650.00">
        <route edges="315255906#1 315255906#2 315255814 ET03 S01" />
    </vehicle>
    <vehicle id="7" depart="650.00">
        <route edges="315255906#1 315255906#2 315255814 ET03 S01" />
    </vehicle>
    <vehicle id="8" depart="650.00">
        <route edges="315255906#1 315255906#2 315255814 ET03 S01" />
    </vehicle>
    <vehicle id="9" depart="650.00">
        <route edges="315255906#1 315255906#2 315255814 ET03 S01" />
    </vehicle>
    <vehicle id="11" depart="650.00">
        <route edges="315255906#1 315255906#2 315255814 ET03 S01" />
    </vehicle>
    <vehicle id="12" depart="650.00">
        <route edges="315255906#1 315255906#2 315255814 ET03 S01" />
    </vehicle>
    <vehicle id="13" depart="650.00">
        <route edges="315255906#1 315255906#2 315255814 ET03 S01" />
    </vehicle>
    <vehicle id="14" depart="650.00">
        <route edges="315255906#1 315255906#2 315255814 ET03 S01" />
    </vehicle>
    <vehicle id="17" depart="650.00">
        <route edges="315255906#1 315255906#2 315255814 ET03 S01" />
    </vehicle>
    <vehicle id="19" depart="650.00">
        <route edges="315255906#1 315255906#2 315255814 ET03 S01" />
    </vehicle>
    <vehicle id="20" depart="650.00">
        <route edges="315255906#1 315255906#2 315255814 ET03 S01" />
    </vehicle>
    <vehicle id="21" depart="650.00">
        <route edges="315255906#1 315255906#2 315255814 ET03 S01" />
    </vehicle>
    <vehicle id="22" depart="650.00">
        <route edges="315255906#1 315255906#2 315255814 ET03 S01" />
    </vehicle>
    <vehicle id="23" depart="650.00">
        <route edges="315255906#1 315255906#2 315255814 ET03 S01" />
    </vehicle>
    <vehicle id="24" depart="650.00">
        <route edges="315255906#1 315255906#2 315255814 ET03 S01" />
    </vehicle>
    <vehicle id="25" depart="650.00">
        <route edges="315255906#1 315255906#2 315255814 ET03 S01" />
    </vehicle>
    <vehicle id="27" depart="650.00">
        <route edges="315255906#1 315255906#2 315255814 ET03 S01" />
    </vehicle>
    <vehicle id="28" depart="650.00">
        <route edges="315255906#1 315255906#2 315255814 ET03 S01" />
    </vehicle>
    <vehicle id="29" depart="650.00">
        <route edges="315255906#1 315255906#2 315255814 ET03 S01" />
    </vehicle>
    <vehicle id="31" depart="650.00">
        <route edges="315255906#1 315255906#2 315255814 ET03 S01" />
    </vehicle>
    <vehicle id="32" depart="650.00">
        <route edges="315255906#1 315255906#2 315255814 ET03 S01" />
    </vehicle>
    <vehicle id="33" depart="650.00">
        <route edges="315255906#1 315255906#2 315255814 ET03 S01" />
    </vehicle>
    <vehicle id="34" depart="650.00">
        <route edges="315255906#1 315255906#2 315255814 ET03 S01" />
    </vehicle>
    <vehicle id="36" depart="650.00">
        <route edges="315255906#1 315255906#2 315255814 ET03 S01" />
    </vehicle>
    <vehicle id="37" depart="650.00">
        <route edges="315255906#1 315255906#2 315255814 ET03 S01" />
    </vehicle>
    <vehicle id="39" depart="650.00">
        <route edges="315255906#1 315255906#2 315255814 ET03 S01" />
    </vehicle>
    <vehicle id="40" depart="650.00">
        <route edges="315255906#1 315255906#2 315255814 ET03 S01" />
    </vehicle>
    <vehicle id="41" depart="650.00">
        <route edges="315255906#1 315255906#2 315255814 ET03 S01" />
    </vehicle>
    <vehicle id="42" depart="650.00">
        <route edges="315255906#1 315255906#2 315255814 ET03 S01" />
    </vehicle>
   














    <vehicle id="78" depart="78.00">
        <route edges="1009999056 ET04 107633326 456581921#0 S03 315255842#0"/>
    </vehicle>
    <vehicle id="79" depart="79.00">
        <route edges="-683569735#4"/>
    </vehicle>
    <vehicle id="80" depart="80.00">
        <route edges="-104184626#11 -104184626#10 -104184626#9 -104184626#7 -104184626#6 -9896930#3 -9896930#2 308158679#2 ET01 456581921#0 S03 315255842#0 128334927#1 -39451304 39451304"/>
    </vehicle>
    <vehicle id="81" depart="81.00">
        <route edges="-683569735#4 -683569735#3 -683569735#2 -683569735#1 -683569735#0 -635112766#2 9896930#1 9896930#3 104184626#6 104184626#7 994046595#1 1018830566#0 1018830566#1 1018830566#2 1018830566#3 993686596#0 993686596#1"/>
    </vehicle>
    <vehicle id="82" depart="82.00">
        <route edges="9896832 308158680#0 9896930#1 9896930#3 104184626#6 104184626#7 104184626#9 104184626#10 104184626#11 -104184626#11 -104184626#10"/>
    </vehicle>
    <vehicle id="83" depart="83.00">
        <route edges="-683569735#5 -683569735#4 -683569735#3 -683569735#2 -683569735#1 -683569735#0 -635112766#2 9896930#1 9896930#3 104184626#6 104184626#7 994046595#1 590856945#1"/>
    </vehicle>
    <vehicle id="84" depart="84.00">
        <route edges="-683569735#3 -683569735#2 -683569735#1 -683569735#0 -635112766#2 308158679#2 ET01 456581921#0 S03 315255842#0 128334927#1 -39451304"/>
    </vehicle>
    <vehicle id="85" depart="85.00">
        <route edges="994046595#1 590856945#1 590856945#2 -1011258043#0 -9897006#3 -9897006#2 -9897006#1 104184626#4 104184626#5 -9896930#3 -9896930#2 308158679#2 ET01 456581921#0 S03 315255842#0 315255906#1 315255906#2 315255814"/>
    </vehicle>
    <vehicle id="86" depart="86.00">
        <route edges="107633326 S01 635112766#1 683569735#0 683569735#1 683569735#2 683569735#3 683569735#4 683569735#5"/>
    </vehicle>
    <vehicle id="88" depart="88.00">
        <route edges="-104184626#6 104184626#6"/>
    </vehicle>
    <vehicle id="90" depart="90.00">
        <route edges="683569735#0 683569735#1 683569735#2 683569735#3 683569735#4 683569735#5 683569735#6 635128643 -635128643 -683569735#6 -683569735#5 -683569735#4 -683569735#3 -683569735#2 -683569735#1 -683569735#0 -635112766#2 9896930#1 9896930#3 104184626#6 104184626#7 994046595#1 590856945#1 590856945#2"/>
    </vehicle>
    <vehicle id="91" depart="91.00">
        <route edges="S01 9896930#1 9896930#3 104184626#6 104184626#7 -104184626#7 -104184626#6"/>
    </vehicle>
    <vehicle id="92" depart="92.00">
        <route edges="104184626#0 9897006#1 9897006#2 9897006#3 1011258043#0"/>
    </vehicle>
    <vehicle id="93" depart="93.00">
        <route edges="9896832 308158680#0 9896930#1 9896930#3 -9896930#3 -9896930#2"/>
    </vehicle>
    <vehicle id="94" depart="94.00">
        <route edges="-683569735#0 -635112766#2 9896930#1 9896930#3 104184626#6 104184626#7 104184626#9"/>
    </vehicle>
    <vehicle id="95" depart="95.00">
        <route edges="104184626#4 104184626#5 104184626#6 104184626#7 994046595#1 590856945#1 590856945#2 -1011258043#0 -9897006#3 -9897006#2"/>
    </vehicle>
    <vehicle id="96" depart="96.00">
        <route edges="-683569735#6 -683569735#5 -683569735#4 -683569735#3 -683569735#2 -683569735#1 -683569735#0 -635112766#2 9896930#1 9896930#3 104184626#6 104184626#7 994046595#1"/>
    </vehicle>
    <vehicle id="97" depart="97.00">
        <route edges="104184626#6 104184626#7 -104184626#7 -104184626#6 -9896930#3 -9896930#2 9896930#1 9896930#3"/>
    </vehicle>
    <vehicle id="98" depart="98.00">
        <route edges="308158679#2 ET01 S01 9896930#1 9896930#3 104184626#6 104184626#7 994046595#1 1018830566#0 1018830566#1 1018830566#2 1018830566#3 993686596#0 993686596#1 -993686596#1 -993686596#0 -1018830566#3"/>
    </vehicle>
</routes>
